38

C     -1.732868   -1.125003    1.037495
C     -1.589066   -0.283289   -0.232243
P      0.118951    0.317064   -0.463602
Ni     0.339868    2.100292   -2.582894
C     -1.562222    3.373725   -1.384403
O     -2.115726    3.573071   -0.421766
C      1.022234    2.792736   -2.037285
O      2.150120    2.823415   -2.025345
C     -1.013312    1.654333   -3.204667
O     -1.486758    0.814857   -3.791525
C      1.141290   -0.809373   -1.466665
C      1.304051   -2.169491   -0.790357
C      2.264699   -3.020551   -1.558129
O      1.849822   -3.752611   -2.496573
O      3.623825   -2.967610   -1.265403
C      0.954533    0.788222    1.084203
C      0.305834    2.034580    1.683862
C      0.956182    2.386406    2.983106
O      1.951336    3.159250    3.002664
O      0.488737    1.822449    4.166212
C     -3.111646   -1.697493    1.126169
O     -4.021411   -1.064612    1.725991
O     -3.399982   -2.908133    0.504310
H     -0.999155   -1.956223    1.040576
H     -1.542157   -0.496532    1.933254
H     -2.263505    0.596592   -0.166894
H     -1.874484   -0.880393   -1.124628
H      2.135552   -0.335236   -1.615357
H      0.659779   -0.938531   -2.459208
H      1.684793   -2.039296    0.245290
H      0.321323   -2.685281   -0.744213
H      4.289472   -3.525061   -1.787132
H      0.903356   -0.059617    1.799283
H      2.022055    0.996122    0.858158
H     -0.776677    1.856803    1.859016
H      0.406682    2.887241    0.977966
H      0.928429    2.036689    5.053362
H     -4.333956   -3.299514    0.537373
