47

C      4.345976   -2.296111   -1.640890
C      2.909738   -2.154820   -2.136462
C      2.165833   -1.055995   -1.369759
C      0.727237   -0.917035   -1.871417
P     -0.184086    0.323476   -0.896759
Ni    -0.206659   -0.539891    2.676111
C     -1.164720    0.249269    4.020455
O     -1.837903    1.153559    4.063308
C      0.662273   -0.814530    2.366337
O      1.782937   -0.758440    2.482603
C     -1.182453   -2.388465    3.646924
O     -1.853682   -3.190706    3.224404
C      0.594960    1.966699   -1.066196
C     -0.143066    3.059914   -0.277187
C     -0.214244    2.813617    1.240472
C      1.156163    2.856623    1.914581
C     -1.932283    0.382974   -1.420218
C     -2.662468   -0.949721   -1.193708
C     -2.719466   -1.403506    0.276129
C     -3.509976   -0.445551    1.166568
H      4.900355   -1.344735   -1.787907
H      4.357526   -2.564742   -0.562985
H      4.859208   -3.097972   -2.212277
H      2.925570   -1.910083   -3.221000
H      2.386438   -3.126668   -2.001856
H      2.701381   -0.092135   -1.506881
H      2.155186   -1.307636   -0.287016
H      0.722410   -0.609005   -2.938622
H      0.207984   -1.893524   -1.776562
H      0.593613    2.240197   -2.142348
H      1.652218    1.910976   -0.738435
H      0.363417    4.032176   -0.461883
H     -1.175312    3.162198   -0.673035
H     -0.848310    3.606918    1.691985
H     -0.705063    1.842153    1.456126
H      1.675472    3.809553    1.678512
H      1.782904    2.002279    1.586280
H      1.027279    2.786211    3.015275
H     -2.456132    1.196079   -0.879605
H     -1.961405    0.629593   -2.502419
H     -2.170750   -1.743203   -1.795069
H     -3.700073   -0.853876   -1.581302
H     -3.212559   -2.398919    0.312575
H     -1.695421   -1.531635    0.684167
H     -3.641966   -0.899322    2.171212
H     -4.513243   -0.248824    0.732787
H     -2.964836    0.512585    1.292138
