29

C     -3.632774    1.161123    0.686510
C     -3.398488   -0.213376    0.791691
C     -2.111697   -0.722003    0.588326
C     -1.055536    0.145123    0.276376
C     -1.292217    1.522147    0.175346
C     -2.579892    2.028380    0.379078
P      0.595729   -0.499675    0.020455
Ni     1.812177    1.117711   -0.486734
C      1.779309    1.867820   -2.130737
O      0.840590    2.057302   -2.727030
C      2.547454    2.007988    0.585428
O      2.110890    2.410682    1.544551
C      3.594236    0.447185   -1.146816
O      4.182359   -0.507277   -1.272814
C      1.206976   -1.242257    1.558492
O      2.523678   -1.674842    1.372190
C      0.586733   -1.735877   -1.308172
O      0.104773   -1.148931   -2.482428
H     -4.628889    1.553905    0.844282
H     -4.213438   -0.884054    1.031400
H     -1.939731   -1.787490    0.674178
H     -0.483695    2.202161   -0.059683
H     -2.761406    3.092403    0.299515
H      0.556671   -2.102515    1.828408
H      1.167398   -0.478943    2.365640
H      2.808358   -2.066027    2.238503
H     -0.066097   -2.584531   -1.009547
H      1.623716   -2.104149   -1.464210
H      0.122811   -1.861983   -3.172200
