83

C     -4.547397   -1.845946    1.443553
C     -4.693590   -2.298691   -0.008409
C     -3.350280   -2.332870   -0.752615
C     -2.458021   -3.503337   -0.312408
C     -1.188646   -3.650678   -1.173760
C     -0.099084   -2.600290   -0.870158
C     -0.107439   -1.430228   -1.870403
C      1.051772   -0.448967   -1.650200
P      1.001295    0.372885   -0.017537
Ni     1.735851   -2.718404    2.976697
C      1.530961   -0.145238    3.240126
O      1.931315    0.833679    3.633262
C     -0.558908   -1.689346    3.084937
O     -1.630062   -1.370552    3.241037
C      1.902663   -2.353131    2.278537
O      2.482760   -3.065506    1.623224
C     -0.674522    0.878290    0.487124
C     -1.263253    1.914054   -0.478902
C     -2.788191    2.047987   -0.344441
C     -3.222717    2.574893    1.033691
C     -4.750269    2.698332    1.157472
C     -5.319437    3.864604    0.330156
C     -6.797443    4.142153    0.645319
C     -7.724469    3.034952    0.144761
C      2.136643    1.799623    0.029802
C      3.573227    1.401879   -0.328636
C      4.216874    0.507320    0.744384
C      5.667238    0.132830    0.403954
C      5.753290   -0.899804   -0.734637
C      7.174818   -1.451218   -0.926406
C      8.140092   -0.404378   -1.501437
C      9.499029   -1.023406   -1.817212
H     -3.987173   -2.598628    2.036312
H     -4.023530   -0.867927    1.495359
H     -5.553749   -1.728802    1.896090
H     -5.180036   -3.297760   -0.042411
H     -5.365401   -1.580621   -0.525560
H     -2.830213   -1.372401   -0.586321
H     -3.559275   -2.426462   -1.840245
H     -2.172732   -3.392923    0.755769
H     -3.041362   -4.445450   -0.402072
H     -0.759240   -4.651632   -0.949926
H     -1.451798   -3.663110   -2.255204
H      0.893370   -3.099296   -0.932923
H     -0.209437   -2.223840    0.167658
H     -0.009417   -1.840791   -2.899904
H     -1.066615   -0.878760   -1.831925
H      2.019963   -0.982599   -1.753134
H      1.008123    0.334309   -2.436005
H     -1.315367   -0.023429    0.533671
H     -0.612112    1.308433    1.508097
H     -0.782245    2.901391   -0.306294
H     -1.047295    1.613414   -1.526325
H     -3.266290    1.062876   -0.538529
H     -3.131160    2.750502   -1.133076
H     -2.743189    3.557513    1.234440
H     -2.884064    1.864714    1.817863
H     -5.223650    1.740837    0.849603
H     -4.994462    2.865063    2.228871
H     -4.741555    4.786749    0.557454
H     -5.212163    3.656889   -0.755478
H     -6.937297    4.278919    1.739546
H     -7.089800    5.093630    0.149385
H     -8.781493    3.342418    0.293413
H     -7.554019    2.094630    0.708877
H     -7.560782    2.851560   -0.938260
H      1.778242    2.553328   -0.702675
H      2.105187    2.260090    1.039907
H      3.576904    0.896000   -1.316061
H      4.175876    2.330721   -0.428276
H      4.217000    1.056231    1.711409
H      3.621776   -0.418789    0.884978
H      6.232766    1.051326    0.137543
H      6.132978   -0.299430    1.316946
H      5.403362   -0.453908   -1.689865
H      5.084137   -1.755932   -0.496864
H      7.116459   -2.311159   -1.629743
H      7.565372   -1.835296    0.041613
H      7.717236    0.025467   -2.435563
H      8.291039    0.417204   -0.769730
H      9.390214   -1.828135   -2.575546
H      9.955217   -1.445183   -0.895417
H     10.177597   -0.243443   -2.222347
