39

C     -2.999339   -2.633002   -2.034803
C     -2.782128   -2.906769   -0.680923
C     -1.843412   -2.163903    0.041992
C     -1.113781   -1.149288   -0.590644
C     -1.340268   -0.870074   -1.945650
C     -2.279144   -1.614571   -2.666485
P      0.064079   -0.180267    0.349343
Ni     1.852224   -0.867287    2.636658
C      1.388692   -2.514251    1.970855
O      1.452336   -3.429442    1.314221
C      2.110719   -0.138034    2.945818
O      2.511188    0.906469    2.799935
C     -0.199581   -1.400169    3.650293
O     -1.295751   -1.187479    3.810814
C      1.572407    0.085565   -0.579627
C      2.171489   -0.972174   -1.273683
C      3.363361   -0.746778   -1.965227
C      3.946337    0.521854   -1.949674
C      3.325751    1.549575   -1.235664
N      2.165174    1.310381   -0.568649
C     -0.675222    1.374433    0.834860
C     -1.024016    2.328918   -0.128040
C     -1.612175    3.527292    0.281420
C     -1.848699    3.757148    1.638261
C     -1.491886    2.778310    2.568896
N     -0.919774    1.617772    2.150527
H     -3.726599   -3.207957   -2.593283
H     -3.342526   -3.692687   -0.191462
H     -1.685443   -2.380404    1.090762
H     -0.789266   -0.082520   -2.443662
H     -2.450140   -1.400639   -3.713625
H      1.721018   -1.956672   -1.280770
H      3.835479   -1.554210   -2.509764
H      4.870613    0.705947   -2.481727
H      3.767865    2.536448   -1.209224
H     -0.839720    2.149621   -1.179425
H     -1.884582    4.275837   -0.451167
H     -2.304558    4.682670    1.965167
H     -1.670720    2.940339    3.623356
