27

C     -1.193617   -1.562592   -1.151616
P     -0.718892   -0.601665    0.311449
Ni    -1.992091    1.090114    0.492867
C     -2.471327    1.871062   -0.883261
O     -1.852079    2.133030   -1.789118
C     -2.149285    1.806991    1.974329
O     -1.342729    2.031678    2.730408
C     -3.832652    0.359559    0.683917
O     -4.415273   -0.605516    0.727938
C     -0.861039   -1.628765    1.799455
C      0.961329   -0.007955    0.135406
C      1.220617    1.368756    0.137056
C      2.532103    1.834684   -0.000297
C      3.586735    0.927152   -0.139502
C      3.330657   -0.447493   -0.141468
C      2.020031   -0.915886   -0.004266
H     -0.530035   -2.446340   -1.247669
H     -2.244976   -1.900104   -1.046733
H     -1.098252   -0.928226   -2.056569
H     -0.563588   -1.034608    2.687687
H     -1.911056   -1.966545    1.916249
H     -0.197134   -2.512577    1.706269
H      0.411373    2.079520    0.244194
H      2.730867    2.898600    0.001160
H      4.601322    1.288740   -0.245736
H      4.147329   -1.149525   -0.249247
H      1.831662   -1.982087   -0.006946
