41

C     -0.876979   -3.742367   -2.394154
C     -0.246961   -2.607214   -2.913364
C     -0.001006   -1.504488   -2.089453
C     -0.379371   -1.538233   -0.740080
C     -1.018004   -2.673208   -0.224789
C     -1.263102   -3.774805   -1.050647
P     -0.090458   -0.120564    0.317112
Ni     0.270879   -0.582168    2.657533
C      0.919826   -1.811488    2.938114
O      1.447663   -2.675630    2.440673
C      0.130237    0.656003    3.502943
O     -0.009936    1.774324    3.453797
C     -1.607834   -1.352989    3.575585
O     -2.633499   -1.594705    3.172786
C      1.615486    0.438804    0.232986
C      1.932684    1.778028    0.504181
C      3.264232    2.203905    0.477770
C      4.285501    1.292493    0.195065
C      3.976490   -0.047435   -0.055320
C      2.645827   -0.476157   -0.029613
C     -1.241007    1.185433   -0.108992
C     -2.336366    1.447704    0.722944
C     -3.248303    2.452530    0.385466
C     -3.072272    3.193616   -0.788293
C     -1.983427    2.926662   -1.625536
C     -1.071008    1.922051   -1.289160
Br    -4.318315    4.565612   -1.248570
H     -1.067354   -4.595293   -3.032647
H      0.049917   -2.581692   -3.953835
H      0.488265   -0.630932   -2.500664
H     -1.323481   -2.706458    0.812904
H     -1.753448   -4.652509   -0.649911
H      1.153418    2.492161    0.737433
H      3.504748    3.239366    0.681201
H      5.316004    1.622880    0.176634
H      4.768427   -0.754884   -0.264541
H      2.422634   -1.519437   -0.212318
H     -2.483324    0.877832    1.631177
H     -4.090858    2.653208    1.034645
H     -1.844295    3.495728   -2.535687
H     -0.231632    1.724316   -1.943375
