53

C     -6.529546   -1.412880   -0.952991
O     -5.300243   -1.437825   -1.671107
C     -4.049959   -1.137327   -1.110593
C     -3.895860   -0.772224    0.241038
C     -2.627220   -0.481762    0.751466
C     -1.499955   -0.564261   -0.073136
C     -1.650813   -0.912648   -1.421228
C     -2.918805   -1.201927   -1.933177
P      0.115667   -0.149658    0.585155
Ni     0.073243   -0.808027    2.524913
C     -0.566200    0.325248    4.066413
O     -1.034407    1.332163    3.867101
C      1.645993   -1.104821    3.642633
O      2.684847   -0.990324    3.218130
C     -0.733386   -2.210840    3.347396
O     -1.233059   -2.995839    2.709546
C      1.416088   -1.074617   -0.232942
C      1.725923   -2.368147    0.201042
C      2.716858   -3.110334   -0.448230
C      3.401877   -2.565953   -1.552076
C      3.074951   -1.276904   -1.989920
C      2.084519   -0.535727   -1.339410
O      4.403904   -3.268930   -2.237173
C      4.834745   -4.584030   -1.902457
C      0.420502    1.615980    0.513619
C      1.248109    2.216422    1.468427
C      1.517818    3.586186    1.402654
C      0.974979    4.369364    0.376693
C      0.155518    3.758823   -0.592615
C     -0.114367    2.388756   -0.524788
O      1.274140    5.739639    0.354338
C      0.788645    6.652026   -0.625163
H     -6.721574   -0.392249   -0.559897
H     -6.498802   -2.144520   -0.118140
H     -7.355932   -1.690763   -1.638619
H     -4.748416   -0.706611    0.902923
H     -2.525295   -0.193533    1.789679
H     -0.791516   -0.957984   -2.077419
H     -3.023990   -1.474958   -2.975567
H      1.202069   -2.802701    1.042621
H      2.939720   -4.104945   -0.087392
H      3.589426   -0.849106   -2.840939
H      1.840473    0.454513   -1.701207
H      5.634807   -4.893568   -2.605732
H      3.988188   -5.297165   -1.991097
H      5.242467   -4.600935   -0.869725
H      1.683878    1.626235    2.264141
H      2.154504    4.041525    2.150606
H     -0.274100    4.332229   -1.402485
H     -0.737631    1.933704   -1.283872
H      1.176494    7.666405   -0.399785
H     -0.321236    6.682435   -0.601415
H      1.141965    6.352392   -1.634391
