41

C     -0.369684   -2.172897    1.512969
C     -1.050858   -2.886290    2.503641
C     -2.297629   -2.441746    2.955999
C     -2.865035   -1.284991    2.411668
C     -2.185010   -0.570349    1.421117
C     -0.925818   -1.001404    0.979119
P     -0.074680   -0.112152   -0.330481
Ni    -1.180750   -1.515082   -2.131375
C     -0.641618   -0.999651   -3.961210
O      0.021120   -0.209211   -4.418347
C     -0.594761   -2.848736   -2.096774
O      0.235114   -3.489186   -1.679912
C     -2.652652   -1.099607   -2.171592
O     -3.381765   -0.282384   -1.901037
C     -0.496846    1.629267   -0.333819
C     -0.393794    2.385219    0.841467
C     -0.710822    3.746951    0.829025
C     -1.126828    4.358943   -0.358473
C     -1.221895    3.606894   -1.534732
C     -0.903142    2.245441   -1.523351
Cl    -1.527026    6.066731   -0.372619
C      1.703778   -0.295304   -0.212806
C      2.361846   -0.053269    1.000350
C      3.751840   -0.179943    1.081008
C      4.489611   -0.540685   -0.051689
C      3.834615   -0.772851   -1.266031
C      2.444427   -0.647158   -1.347419
Cl     6.233422   -0.698693    0.049705
Cl    -3.153084   -3.339003    4.196409
H      0.588194   -2.536331    1.163784
H     -0.611398   -3.785893    2.914935
H     -3.833802   -0.941623    2.751478
H     -2.642644    0.315692    1.000352
H     -0.075334    1.921071    1.765973
H     -0.635648    4.323791    1.741482
H     -1.538226    4.076344   -2.456855
H     -0.976254    1.673513   -2.438749
H      1.800631    0.225852    1.882477
H      4.253743    0.002980    2.022367
H      4.401026   -1.048544   -2.146124
H      1.947633   -0.825709   -2.291931
