33

C     -0.584136    2.011518   -1.723307
C     -0.885870    1.906923   -0.234618
P     -0.445568    0.256446    0.396221
Ni    -1.872138   -2.305705   -0.855002
C     -1.780517   -2.751840   -0.203232
O     -1.196910   -3.247499    0.625256
C     -3.217494   -0.859005   -1.198944
O     -3.901389    0.011633   -0.982278
C     -1.439586   -1.774217   -2.851679
O     -0.554724   -1.380708   -3.430376
C     -0.839026    0.122734    2.167547
C     -2.344887    0.136825    2.391766
C      1.303552   -0.048466    0.158308
C      2.252984    0.819583    0.714637
C      3.617441    0.581123    0.521974
C      4.036333   -0.524130   -0.225120
C      3.090772   -1.392397   -0.779410
C      1.725806   -1.155931   -0.587976
H      0.499304    1.855717   -1.911558
H     -1.168933    1.255660   -2.288289
H     -0.864985    3.021753   -2.088044
H     -0.307462    2.676042    0.318926
H     -1.968238    2.085222   -0.067207
H     -0.418663   -0.828182    2.557396
H     -0.370559    0.970300    2.710712
H     -2.558017    0.030062    3.476069
H     -2.823370   -0.707694    1.852625
H     -2.781641    1.094718    2.039794
H      1.938104    1.677818    1.294714
H      4.349680    1.252558    0.951388
H      5.092509   -0.707935   -0.373826
H      3.415446   -2.248300   -1.356843
H      1.002182   -1.834630   -1.019622
