65

C     -5.378013   -1.788280   -3.449054
C     -4.269566   -2.691902   -2.916442
C     -3.309326   -1.914108   -2.009257
C     -2.207056   -2.832095   -1.460236
C     -1.273832   -2.106331   -0.478712
C     -0.298873   -1.160944   -1.188914
P      0.815789   -0.362575    0.010698
Ni     3.116855   -2.876372    2.024959
C     -0.118869   -2.828116    3.148811
O     -1.242512   -2.916587    3.093593
C      1.881371   -3.310399    1.555768
O      2.066409   -4.060388    0.733804
C      2.260095   -1.461341    3.030062
O      2.666706   -0.490924    3.438421
C     -0.099573    0.555409    1.291938
C     -1.059211    1.573145    0.670472
C     -1.799134    2.359474    1.758305
C     -2.769239    3.376573    1.140062
C     -3.617345    4.099416    2.197190
C     -2.803578    5.085636    3.034441
C      1.979899    0.755165   -0.838325
C      2.933983    0.004293   -1.779251
C      3.833693   -1.039593   -1.088878
C      4.706349   -0.495497    0.059547
C      5.641318    0.661856   -0.331596
C      6.677979    0.259267   -1.378823
H     -4.944951   -0.947419   -4.032138
H     -5.979069   -1.382277   -2.608719
H     -6.047005   -2.373175   -4.114231
H     -4.731518   -3.528564   -2.347196
H     -3.708194   -3.119285   -3.776915
H     -3.879918   -1.475290   -1.161530
H     -2.855305   -1.087059   -2.594734
H     -1.615446   -3.261965   -2.298749
H     -2.685217   -3.677586   -0.918231
H     -1.880616   -1.548719    0.266851
H     -0.685299   -2.872390    0.070685
H      0.314144   -1.736313   -1.913849
H     -0.846425   -0.368422   -1.737403
H      0.634722    1.075987    1.942138
H     -0.667134   -0.167921    1.912894
H     -1.802148    1.041993    0.037317
H     -0.488814    2.281379    0.031118
H     -2.366310    1.650744    2.400441
H     -1.053416    2.889290    2.388051
H     -2.204406    4.120082    0.536954
H     -3.460591    2.841443    0.453573
H     -4.107938    3.359104    2.865629
H     -4.420232    4.665188    1.677123
H     -3.486020    5.658042    3.696432
H     -2.073053    4.549562    3.674963
H     -2.265473    5.802211    2.377365
H      1.390933    1.482607   -1.435258
H      2.550894    1.333648   -0.083124
H      2.337270   -0.508910   -2.562501
H      3.568804    0.743491   -2.311188
H      4.486506   -1.507854   -1.855385
H      3.199461   -1.858957   -0.690670
H      5.319554   -1.333017    0.458606
H      4.052969   -0.163106    0.893194
H      6.181025    0.993757    0.581828
H      5.058025    1.531974   -0.696676
H      7.242398   -0.636643   -1.041430
H      6.189740    0.045424   -2.352889
H      7.393733    1.094165   -1.527921
