53

C      1.664096   -3.047757   -1.927156
O      1.421478   -1.995790   -0.999804
C      2.326254   -1.577182   -0.011833
C      3.590569   -2.181040    0.141740
C      4.474763   -1.729023    1.124613
C      4.112806   -0.671208    1.959516
C      2.863087   -0.065781    1.818053
C      1.962925   -0.520792    0.846087
P      0.375128    0.304423    0.684230
Ni    -0.518252    0.877899    2.542354
C      0.324235    2.905996    2.648723
O      1.051353    3.547216    2.071392
C      0.413465    0.991086    4.627390
O      0.917193   -0.010510    4.754545
C     -1.815401    1.858492    3.435590
O     -2.812185    1.357498    3.265463
C      0.317623    1.506596   -0.655026
C      1.396168    1.614354   -1.545856
C      1.348513    2.524851   -2.602697
C      0.224756    3.332076   -2.779875
C     -0.856589    3.230997   -1.901689
C     -0.822073    2.315210   -0.831062
O     -1.896811    2.180346    0.063094
C     -3.117134    2.907537   -0.025077
C     -0.991685   -0.866309    0.669267
C     -1.411906   -1.415383    1.887639
C     -2.459309   -2.336893    1.923601
C     -3.088726   -2.724764    0.740871
C     -2.669181   -2.196734   -0.482428
C     -1.611533   -1.266465   -0.533198
O     -1.158897   -0.731922   -1.749826
C     -1.715082   -1.030707   -3.025067
H      2.548131   -2.807223   -2.554530
H      0.779920   -3.158250   -2.587333
H      1.825195   -4.003870   -1.386264
H      3.901162   -2.997350   -0.495589
H      5.444607   -2.196612    1.235510
H      4.802270   -0.318403    2.715526
H      2.597678    0.759458    2.466387
H      2.275290    0.995453   -1.428625
H      2.183828    2.603560   -3.286445
H      0.190414    4.036627   -3.600846
H     -1.715211    3.867224   -2.065586
H     -3.617410    2.696937   -0.993795
H     -2.921374    3.995586    0.077893
H     -3.789204    2.588259    0.797217
H     -0.929133   -1.127335    2.812540
H     -2.782145   -2.752235    2.869546
H     -3.900611   -3.439995    0.770978
H     -3.171117   -2.522024   -1.383123
H     -1.615061   -2.115200   -3.241111
H     -2.783427   -0.729481   -3.055006
H     -1.163454   -0.461442   -3.800917
