43

C     -1.939732   -1.399361   -1.607231
C     -0.430181   -1.111623   -1.647054
C      0.345025   -2.437182   -1.722049
C     -0.101294   -0.248585   -2.875684
P      0.043462   -0.231469   -0.109160
Ni    -0.932495   -2.573468    2.440106
C     -0.995889   -2.461866    2.097667
O     -0.295766   -3.346146    2.091860
C     -3.772340   -2.336749    1.820755
O     -4.672569   -1.743470    1.488493
C      0.158423    0.220175    3.784593
O      0.757659    1.160582    3.611247
C      1.809111   -0.035655    0.149391
C      2.566965    0.828095   -0.655463
C      3.942580    0.959265   -0.441248
C      4.566452    0.228557    0.575019
C      3.815151   -0.635031    1.377819
C      2.439963   -0.768954    1.164329
C     -0.926178    1.238771    0.235274
C     -1.971962    1.169382    1.164640
C     -2.755619    2.296698    1.427979
C     -2.501053    3.496482    0.758513
C     -1.467078    3.567307   -0.179314
C     -0.679840    2.441644   -0.441512
H     -2.196394   -2.011459   -0.716696
H     -2.519054   -0.452498   -1.559183
H     -2.256630   -1.954548   -2.516105
H      0.055779   -3.007885   -2.630345
H      0.132882   -3.066531   -0.830448
H      1.440897   -2.249365   -1.764726
H     -0.624514    0.729110   -2.822220
H      0.990375   -0.068343   -2.949751
H     -0.423741   -0.761494   -3.807388
H      2.103064    1.397375   -1.448214
H      4.525332    1.625872   -1.064431
H      5.631146    0.330969    0.740289
H      4.298603   -1.201011    2.164520
H      1.869083   -1.442670    1.790432
H     -2.184437    0.242901    1.681337
H     -3.563609    2.238649    2.146034
H     -3.110178    4.368083    0.961987
H     -1.274823    4.495289   -0.702907
H      0.103421    2.510159   -1.181154
