40

C      3.422555   -1.677067   -1.493975
C      2.093878   -0.965565   -1.259768
C      1.830389   -0.771757    0.235601
P      0.201325   -0.006113    0.524099
Ni    -0.064181    0.260725    3.267879
C      1.184332    0.340643    3.622316
O      2.210116    0.800860    3.528252
C     -0.284001   -1.637521    3.376982
O     -0.468719   -2.730372    3.166833
C     -1.422757    0.735473    3.149311
O     -2.149640    1.530510    2.814713
C      0.146466    1.634837   -0.197274
C      0.444975    2.752948    0.591811
C      0.425613    4.033106    0.029187
C      0.115956    4.198596   -1.324205
C     -0.171518    3.083383   -2.117080
C     -0.152801    1.802480   -1.556711
C     -1.185486   -1.018194   -0.014831
C     -1.048232   -2.408286   -0.149586
C     -2.144285   -3.189487   -0.528761
C     -3.385241   -2.590184   -0.760681
C     -3.533290   -1.209324   -0.606489
C     -2.439320   -0.425738   -0.226997
H      3.592873   -1.796929   -2.584731
H      3.408979   -2.683600   -1.023979
H      4.258514   -1.083185   -1.066830
H      2.126358    0.023384   -1.765138
H      1.279691   -1.568017   -1.716228
H      1.866974   -1.747040    0.764912
H      2.610270   -0.110315    0.669095
H      0.690083    2.634877    1.639469
H      0.652441    4.896281    0.641420
H      0.101999    5.189704   -1.758885
H     -0.406918    3.211400   -3.165593
H     -0.372154    0.944623   -2.179916
H     -0.100184   -2.892342    0.039827
H     -2.032798   -4.260623   -0.637505
H     -4.233142   -3.196321   -1.052423
H     -4.496940   -0.746693   -0.775950
H     -2.572182    0.640844   -0.098174
