50

C     -4.505915   -2.919205   -0.195787
C     -4.445660   -2.026468    0.877438
C     -3.206907   -1.596044    1.362087
C     -2.016390   -2.057987    0.774787
C     -2.086411   -2.954543   -0.304520
C     -3.327239   -3.383021   -0.785865
C     -0.685989   -1.566732    1.275355
P     -0.188816   -0.041802    0.409669
Ni     1.791327    1.214657    1.448241
C      2.686514    1.684692    1.836795
O      2.986405    2.557655    1.188169
C      0.969245    0.892971    3.526587
O     -0.061870    1.064665    3.950889
C      2.683905   -0.732417    2.334891
O      2.837021   -1.832719    2.139034
C      0.360546   -0.388094   -1.291132
C      1.756434   -0.941703   -1.273409
C      1.976366   -2.328725   -1.239253
C      3.278817   -2.833999   -1.179616
C      4.368872   -1.960011   -1.148233
C      4.158353   -0.578892   -1.177272
C      2.857769   -0.069814   -1.238465
C     -1.523982    1.194947    0.439233
C     -1.027714    2.508342   -0.094815
C     -0.307645    3.382303    0.736528
C      0.188464    4.587517    0.230618
C     -0.028556    4.927620   -1.107321
C     -0.742033    4.062706   -1.941594
C     -1.239628    2.856254   -1.439595
H     -5.465576   -3.251035   -0.570413
H     -5.359062   -1.666008    1.332619
H     -3.175165   -0.899006    2.190318
H     -1.183700   -3.322671   -0.772411
H     -3.374930   -4.074072   -1.617499
H     -0.745635   -1.355237    2.363690
H      0.096107   -2.341185    1.130115
H     -0.344677   -1.096284   -1.773736
H      0.343403    0.552061   -1.879951
H      1.143286   -3.018020   -1.256398
H      3.442870   -3.903470   -1.153535
H      5.376132   -2.352854   -1.098967
H      5.002688    0.097587   -1.148465
H      2.707590    1.002622   -1.253044
H     -2.379535    0.822807   -0.163576
H     -1.874270    1.321569    1.485507
H     -0.127551    3.128217    1.773269
H      0.744075    5.256223    0.875232
H      0.357600    5.860181   -1.497971
H     -0.906538    4.325475   -2.978560
H     -1.782394    2.190947   -2.099667
