44

C     -2.088895    4.045794    0.346668
C     -1.401698    3.572617   -0.776341
C     -0.838071    2.292793   -0.765262
C     -0.954695    1.484047    0.374748
C     -1.652120    1.957768    1.494337
C     -2.214869    3.238379    1.480943
P     -0.260639   -0.169037    0.395851
Ni    -0.096855   -1.187421    2.785997
C      1.937475   -3.892360   -0.710731
O      2.962951   -3.430428   -0.796328
C      1.864702    3.524454    1.355314
O      1.398761    4.498857    1.027929
C     -1.429013   -1.383439    3.614042
O     -2.441601   -1.670980    3.209728
C     -1.385611   -1.397102   -0.266580
C     -1.319137   -2.716283    0.198988
C     -2.164542   -3.692555   -0.336117
C     -3.072267   -3.355826   -1.344563
C     -3.132857   -2.042750   -1.820425
C     -2.288042   -1.064533   -1.286803
C      1.347627   -0.235518   -0.412230
C      1.371894   -0.382360   -1.807707
C      2.578656   -0.361538   -2.505518
C      3.776801   -0.180965   -1.819645
C      3.773318   -0.026536   -0.432291
C      2.568307   -0.058091    0.296195
C      2.643197    0.089753    1.772422
O      1.726250   -0.342018    2.521365
O      3.761299    0.683797    2.352882
H     -2.524344    5.036660    0.337329
H     -1.306690    4.197021   -1.655191
H     -0.313953    1.936857   -1.642701
H     -1.758003    1.339099    2.376156
H     -2.749959    3.603815    2.348870
H     -0.613647   -2.988173    0.974171
H     -2.113232   -4.710268    0.027729
H     -3.724965   -4.112777   -1.759735
H     -3.831472   -1.784106   -2.605414
H     -2.337239   -0.054740   -1.671592
H      0.450309   -0.503734   -2.363010
H      2.583874   -0.481852   -3.581376
H      4.712498   -0.163705   -2.363671
H      4.722372    0.101896    0.073695
H      3.834124    0.785494    3.357875
