47

C     -0.360491    6.580236   -1.093394
O      0.317148    5.444077   -1.615397
C      0.178184    4.271647   -0.925783
C      0.877511    3.190299   -1.465988
C      0.824833    1.929840   -0.864427
C      0.064148    1.730149    0.293769
C     -0.633231    2.821860    0.832990
C     -0.578362    4.082675    0.229231
P     -0.065084    0.128448    1.112063
O     -0.151255    0.298512    2.620450
C      1.380142   -0.850653    0.659921
C      1.383030   -1.743481   -0.418402
C      2.536943   -2.466424   -0.733429
C      3.704135   -2.315917    0.018369
C      3.708881   -1.432217    1.095950
C      2.555354   -0.706938    1.413016
O      4.756478   -3.081792   -0.400530
C      5.962838   -2.978548    0.345508
C     -1.530728   -0.708898    0.477644
C     -2.095326   -0.408343   -0.767678
C     -3.223931   -1.099780   -1.216644
C     -3.810324   -2.097843   -0.435488
C     -3.257119   -2.400735    0.807232
C     -2.127090   -1.710515    1.258698
O     -4.906288   -2.692582   -0.996399
C     -5.551233   -3.702546   -0.230533
H     -0.143359    7.429149   -1.748868
H     -1.444842    6.427775   -1.094383
H      0.003378    6.831545   -0.091614
H      1.472982    3.332720   -2.365172
H      1.385270    1.114564   -1.314375
H     -1.222927    2.687256    1.739399
H     -1.135996    4.891755    0.689097
H      0.494336   -1.890789   -1.026460
H      2.526044   -3.157773   -1.573263
H      4.589121   -1.283214    1.712404
H      2.568728   -0.023518    2.261660
H      5.814719   -3.298017    1.382386
H      6.695424   -3.652578   -0.108855
H      6.370363   -1.963298    0.298096
H     -1.670184    0.363141   -1.404298
H     -3.653738   -0.856201   -2.185836
H     -3.678148   -3.164710    1.452304
H     -1.706844   -1.951392    2.234816
H     -5.937219   -3.298329    0.711140
H     -4.881885   -4.550750   -0.052809
H     -6.404386   -4.067870   -0.810283
