27

C     -1.482197   -2.698413   -0.017457
C     -1.813943   -1.334788   -0.591208
P     -1.108174    0.038572    0.356404
O     -1.682317    0.042460    1.752217
C     -1.703001    1.487905   -0.553437
C     -1.265873    2.805475    0.056193
C      0.658786   -0.029415    0.247086
C      1.423510   -0.075179    1.420118
C      2.816206   -0.129126    1.360846
C      3.460140   -0.137896    0.125702
C      2.712081   -0.092763   -1.049054
C      1.318368   -0.038787   -0.989137
H     -0.401055   -2.865314   -0.011096
H     -1.950490   -3.489899   -0.609831
H     -1.837828   -2.780015    1.014091
H     -1.463296   -1.275659   -1.626844
H     -2.901942   -1.208425   -0.612524
H     -2.797537    1.447924   -0.576979
H     -1.356987    1.429132   -1.590650
H     -1.615081    2.887141    1.089927
H     -1.669995    3.646810   -0.514328
H     -0.174976    2.886794    0.065867
H      0.925094   -0.068561    2.388878
H      3.396700   -0.164241    2.279253
H      4.545301   -0.179929    0.079462
H      3.216206   -0.099680   -2.012233
H      0.752302   -0.004122   -1.916408
