38

C      5.165614    0.280653    1.488186
C      3.794521    0.146094    0.894815
C      3.571326    0.457884   -0.449931
C      2.302453    0.299299   -1.010136
C      1.232496   -0.182107   -0.241355
C      1.465216   -0.510821    1.100773
C      2.735581   -0.352291    1.661351
P     -0.387121   -0.344642   -1.018007
O     -0.251704   -0.792225   -2.464777
C     -1.348136   -1.537149   -0.064377
C     -1.202034   -2.903496   -0.352349
C     -1.912509   -3.864079    0.367613
C     -2.779660   -3.470372    1.384032
C     -2.938361   -2.117659    1.678924
C     -2.227524   -1.154999    0.959229
C     -1.219402    1.252818   -0.915584
C     -0.876480    2.225501    0.034892
C     -1.561175    3.441575    0.083095
C     -2.593582    3.699517   -0.816675
C     -2.942264    2.744191   -1.768429
C     -2.258925    1.529106   -1.817955
H      5.725011   -0.650052    1.352612
H      5.107552    0.506534    2.558152
H      5.718044    1.098483    1.013630
H      4.384616    0.823647   -1.073102
H      2.143746    0.544588   -2.059601
H      0.664870   -0.898321    1.725940
H      2.894226   -0.624219    2.702944
H     -0.530765   -3.216583   -1.151151
H     -1.791816   -4.918299    0.131421
H     -3.336261   -4.218214    1.943061
H     -3.620379   -1.811600    2.468476
H     -2.371476   -0.106425    1.206906
H     -0.072966    2.050454    0.745781
H     -1.285859    4.190926    0.821260
H     -3.123259    4.648027   -0.779896
H     -3.742886    2.945678   -2.475635
H     -2.530729    0.788578   -2.569242
