59

C      7.223109    1.674506    0.720642
C      5.873663    1.151122    0.253295
C      4.796687    1.354634    1.320138
C      3.398233    0.929705    0.859574
C      3.288263   -0.566450    0.574372
C      1.849329   -1.048452    0.409555
P      0.973617   -0.494155   -1.049102
O      1.863609   -0.481447   -2.263613
C     -0.411023   -1.617365   -1.301502
C     -1.058976   -2.211581   -0.055588
C     -2.320649   -3.002924   -0.404099
C     -2.960198   -3.604338    0.849914
C     -4.168412   -4.491931    0.547270
C     -5.346086   -3.734765   -0.044466
C      0.269824    1.134352   -0.769298
C     -0.621413    1.321916    0.449666
C     -1.011222    2.782870    0.700385
C     -1.793884    3.463521   -0.427839
C     -3.122172    2.775624   -0.746649
C     -3.911671    3.550678   -1.790538
H      7.554702    1.152091    1.623945
H      7.978447    1.522575   -0.056505
H      7.173104    2.745108    0.941648
H      5.975787    0.087717    0.011841
H      5.586583    1.670127   -0.668308
H      4.759199    2.416692    1.593812
H      5.066888    0.804626    2.230343
H      2.681027    1.206694    1.641177
H      3.135642    1.498217   -0.037477
H      3.853246   -0.813485   -0.330481
H      3.743142   -1.125248    1.401348
H      1.894964   -2.142409    0.345494
H      1.273563   -0.822809    1.312065
H     -0.045562   -2.443030   -1.922910
H     -1.161032   -1.088396   -1.899642
H     -0.343597   -2.871379    0.446720
H     -1.305003   -1.424481    0.660190
H     -2.068226   -3.803868   -1.110120
H     -3.032882   -2.338285   -0.905807
H     -3.256886   -2.801392    1.536126
H     -2.213253   -4.210796    1.377602
H     -3.876689   -5.301612   -0.131226
H     -4.493299   -4.964452    1.481662
H     -5.112279   -3.339053   -1.036527
H     -6.206708   -4.402312   -0.148695
H     -5.641514   -2.901800    0.600105
H      1.090817    1.855742   -0.726995
H     -0.300521    1.380326   -1.672045
H     -0.103123    0.953105    1.340111
H     -1.524451    0.715646    0.345741
H     -1.605079    2.829705    1.622122
H     -0.101690    3.366366    0.890866
H     -1.177652    3.519472   -1.333200
H     -1.990977    4.500863   -0.126716
H     -3.722872    2.685480    0.166184
H     -2.946544    1.762415   -1.124548
H     -3.341309    3.650312   -2.719199
H     -4.846939    3.031831   -2.020660
H     -4.159650    4.554178   -1.430158
