34

C      4.033136   -1.243024   -0.220952
C      2.754413   -0.716739   -0.849693
C      1.523189   -1.124055   -0.047084
P     -0.042232   -0.521357   -0.773574
O     -0.082595   -0.980666   -2.217442
C     -0.038670    1.259727   -0.598543
C     -0.048971    2.066883   -1.745157
C     -0.037470    3.457764   -1.637544
C     -0.016124    4.058112   -0.380835
C     -0.006826    3.268648    0.767363
C     -0.017602    1.876679    0.659886
C     -1.400672   -1.175876    0.191892
C     -2.634293   -1.387774   -0.442573
C     -3.726713   -1.888015    0.266350
C     -3.599402   -2.183428    1.621132
C     -2.380784   -1.980146    2.265286
C     -1.286905   -1.479580    1.555345
H      4.023490   -2.336397   -0.168627
H      4.161636   -0.851331    0.793145
H      4.900729   -0.939019   -0.814856
H      2.668782   -1.095327   -1.874165
H      2.805862    0.375113   -0.920509
H      1.462753   -2.217048    0.006364
H      1.610503   -0.746943    0.977181
H     -0.066049    1.604065   -2.731113
H     -0.046568    4.071046   -2.535018
H     -0.009234    5.141781   -0.296737
H      0.005962    3.738789    1.747519
H     -0.013844    1.279717    1.567631
H     -2.738538   -1.164375   -1.503707
H     -4.674682   -2.048663   -0.240738
H     -4.449678   -2.574332    2.173988
H     -2.282977   -2.213498    3.322676
H     -0.349628   -1.330730    2.083109
