34

C     -2.770365   -3.236144   -0.608013
C     -1.990317   -3.526482    0.506803
C     -1.178125   -2.537240    1.068385
C     -1.127785   -1.240494    0.525182
C     -1.924284   -0.969186   -0.597142
C     -2.737758   -1.958559   -1.159493
P     -0.038247   -0.020818    1.330177
C      1.605642   -0.356379    0.617614
C      2.721520    0.248737    1.224082
C      4.013995    0.038643    0.735209
C      4.215085   -0.783767   -0.368779
C      3.125091   -1.394681   -0.982061
C      1.831820   -1.183544   -0.492464
C     -0.527577    1.569809    0.586414
C     -1.641799    2.234991    1.129731
C     -2.077040    3.458845    0.613617
C     -1.403557    4.042318   -0.454823
C     -0.296843    3.402446   -1.005427
C      0.137850    2.177380   -0.488619
H     -3.403469   -4.003160   -1.045838
H     -2.011656   -4.521745    0.942859
H     -0.577129   -2.792504    1.939730
H     -1.925742    0.013244   -1.062219
H     -3.346110   -1.726215   -2.029893
H      2.593191    0.898165    2.088589
H      4.860730    0.518086    1.219283
H      5.219029   -0.949583   -0.750125
H      3.276861   -2.039028   -1.844300
H      1.009200   -1.676370   -1.004210
H     -2.188405    1.800623    1.965282
H     -2.941407    3.953493    1.048754
H     -1.739275    4.994269   -0.857200
H      0.233548    3.854583   -1.839650
H      1.003328    1.710264   -0.951453
