38

C     -2.984481   -2.565342    2.341324
C     -3.582369   -1.376507    1.936627
C     -3.054390   -0.659794    0.858701
C     -1.906826   -1.104362    0.176727
C     -1.343104   -2.324505    0.580796
C     -1.868955   -3.042494    1.660095
P     -1.280218   -0.151172   -1.246387
C     -1.086634    1.554312   -0.613191
C     -0.883669    1.880072    0.736494
C     -0.737050    3.209933    1.142857
C     -0.789658    4.237448    0.205498
C     -0.987305    3.936425   -1.138707
C     -1.133559    2.606629   -1.543983
C      0.466984   -0.646533   -1.413530
C      1.404680   -0.542845   -0.377422
C      2.731022   -0.935995   -0.586628
C      3.152012   -1.427583   -1.822409
C      2.228139   -1.537513   -2.857266
C      0.899221   -1.150152   -2.653621
S      3.901406   -0.761709    0.728688
O      5.187603   -0.447480    0.143713
O      3.714731   -1.875896    1.628993
O      3.459333    0.587065    1.496647
H     -3.393329   -3.125406    3.178038
H     -4.463515   -1.006042    2.453939
H     -3.554063    0.259581    0.557010
H     -0.487529   -2.748297    0.060375
H     -1.407409   -3.979667    1.961425
H     -0.830714    1.105202    1.497910
H     -0.581663    3.439539    2.194018
H     -0.676860    5.270871    0.522265
H     -1.028560    4.734839   -1.875053
H     -1.285533    2.401020   -2.602101
H      1.109657   -0.170828    0.600766
H      4.186103   -1.724351   -1.983154
H      2.537687   -1.921836   -3.826451
H      0.198812   -1.245294   -3.482540
H      4.170004    1.248670    1.359537
