46

C      4.892537   -3.607543   -0.995109
O      3.976134   -3.931013    0.042970
C      3.093354   -2.955299    0.413077
C      2.237990   -3.304647    1.456809
C      1.285429   -2.397799    1.933079
C      1.161046   -1.116490    1.371974
C      2.028661   -0.778122    0.324110
C      2.984952   -1.687151   -0.152143
P     -0.108401   -0.003061    2.056364
C     -1.642613   -0.508507    1.213556
C     -1.691982   -1.373650    0.111577
C     -2.911772   -1.721291   -0.487504
C     -4.109372   -1.210139    0.006361
C     -4.075218   -0.349894    1.102661
C     -2.859161   -0.004386    1.701335
O     -5.359306   -1.466358   -0.483858
C     -5.446538   -2.366793   -1.580964
C      0.284673    1.619420    1.326530
C      1.282319    2.393860    1.940537
C      1.635722    3.648761    1.433671
C      1.000279    4.164988    0.305494
C      0.006452    3.410755   -0.313267
C     -0.346991    2.151541    0.193783
O      1.438601    5.398940   -0.086342
C      0.794787    5.981163   -1.212648
H      4.367848   -3.398418   -1.933199
H      5.537325   -2.770687   -0.706855
H      5.532818   -4.479597   -1.159441
H      2.312400   -4.291229    1.907719
H      0.637075   -2.709573    2.750260
H      1.980330    0.198096   -0.152017
H      3.626490   -1.366249   -0.966060
H     -0.784028   -1.795376   -0.312458
H     -2.883863   -2.394328   -1.337948
H     -5.002937    0.055767    1.498864
H     -2.876071    0.669811    2.556041
H     -6.503962   -2.475838   -1.840588
H     -5.066210   -3.357483   -1.310683
H     -4.927460   -1.969385   -2.459405
H      1.802331    2.027275    2.824026
H      2.412839    4.227473    1.927010
H     -0.518368    3.767038   -1.193403
H     -1.125898    1.599393   -0.326290
H     -0.272844    6.133770   -1.022781
H      0.954822    5.379042   -2.113136
H      1.245783    6.963214   -1.384756
