37

C      5.212665    0.090662    0.749749
C      3.796917    0.046819    0.257950
C      2.840623   -0.732235    0.914540
C      1.525700   -0.799946    0.438592
C      1.135110   -0.097837   -0.709638
C      2.110359    0.667542   -1.372001
C      3.424602    0.736829   -0.897845
P     -0.548602   -0.122653   -1.406633
C     -1.382763   -1.469371   -0.504898
C     -1.206141   -2.783623   -0.974492
C     -1.813950   -3.868326   -0.336045
C     -2.612719   -3.658270    0.783552
C     -2.802792   -2.365491    1.263179
C     -2.193770   -1.280489    0.623944
C     -1.322076    1.392777   -0.751933
C     -2.551139    1.795979   -1.305101
C     -3.204572    2.946971   -0.855791
C     -2.638938    3.718648    0.154243
C     -1.421971    3.339325    0.713280
C     -0.768860    2.186993    0.263383
H      5.251780   -0.023792    1.838144
H      5.680808    1.050589    0.507632
H      5.794329   -0.713153    0.288150
H      3.108716   -1.295796    1.805608
H      0.818401   -1.412399    0.991807
H      1.854801    1.224467   -2.272085
H      4.152743    1.335312   -1.440586
H     -0.585060   -2.977118   -1.847641
H     -1.661853   -4.875097   -0.716072
H     -3.087184   -4.499797    1.281075
H     -3.426566   -2.195823    2.137118
H     -2.364657   -0.288654    1.034512
H     -3.017205    1.210171   -2.095794
H     -4.154154    3.237856   -1.297171
H     -3.144403    4.614514    0.504583
H     -0.975161    3.939284    1.501994
H      0.176982    1.925131    0.730689
