54

C      3.054847   -2.011051    3.202529
C      2.376511   -1.747678    1.870531
O      2.510350   -0.363107    1.567473
Si     1.910881    0.194469    0.111630
C      0.023695    0.004218    0.040325
C     -0.726216    0.610434    1.225227
P     -2.566003    0.526060    1.181937
C     -2.876405   -1.228397    0.816214
C     -2.856534   -1.769853   -0.476649
C     -3.089940   -3.132499   -0.689562
C     -3.344159   -3.976705    0.387485
C     -3.366762   -3.458456    1.678191
C     -3.133618   -2.095727    1.889708
C     -3.104283    1.439993   -0.294192
C     -4.385902    1.208554   -0.822842
C     -4.856896    1.921476   -1.932041
C     -4.058399    2.895762   -2.522639
C     -2.795905    3.159684   -2.000531
C     -2.326745    2.442498   -0.892852
O      2.613601   -0.703382   -1.109455
C      3.999123   -0.515175   -1.377368
C      4.406062   -1.483146   -2.474416
O      2.376924    1.781011   -0.099217
C      2.460161    2.660481    1.013268
C      3.175989    3.923779    0.560510
H      4.116082   -1.741406    3.155512
H      2.969529   -3.064979    3.479067
H      2.603816   -1.402223    3.992520
H      1.316716   -2.022613    1.945789
H      2.852753   -2.363050    1.098418
H     -0.165818   -1.073936   -0.012877
H     -0.314203    0.431705   -0.909918
H     -0.407301    0.105763    2.147713
H     -0.450110    1.662003    1.358511
H     -2.647269   -1.139895   -1.340522
H     -3.067123   -3.531400   -1.700113
H     -3.526066   -5.034957    0.222042
H     -3.567483   -4.112764    2.525626
H     -3.158181   -1.717410    2.911079
H     -5.042509    0.464888   -0.371527
H     -5.847412    1.716378   -2.326042
H     -4.421858    3.456057   -3.379660
H     -2.169857    3.926745   -2.451270
H     -1.338859    2.694458   -0.510147
H      4.598322   -0.717418   -0.479462
H      4.189405    0.512107   -1.715692
H      4.198140   -2.516928   -2.176036
H      5.473799   -1.386341   -2.701222
H      3.830645   -1.290654   -3.387959
H      1.453726    2.927286    1.359585
H      3.018117    2.211459    1.845065
H      2.643785    4.397749   -0.273424
H      4.183122    3.684132    0.202924
H      3.255715    4.642001    1.381167
