35

C     -2.409121    3.015772    1.647333
C     -1.718349    1.821842    1.859597
C     -0.721536    1.396981    0.965403
C     -0.428071    2.199813   -0.146652
C     -1.121890    3.392745   -0.353730
C     -2.111038    3.802917    0.536762
Cl    -0.752855    4.362790   -1.726065
P      0.122825   -0.161843    1.288161
O      0.290758   -0.383137    2.781658
C      1.725752   -0.113901    0.466348
C      1.926959   -0.614260   -0.828443
C      3.188141   -0.540617   -1.421189
C      4.261430    0.027345   -0.739208
C      4.074993    0.524584    0.549130
C      2.815954    0.453459    1.147001
Cl     3.416011   -1.154435   -3.012345
C     -0.847245   -1.489912    0.551782
C     -1.732551   -1.277635   -0.515223
C     -2.450502   -2.345792   -1.054610
C     -2.300353   -3.632666   -0.543687
C     -1.426611   -3.855645    0.518704
C     -0.706130   -2.791152    1.062257
Cl    -3.528226   -2.068450   -2.366888
H     -3.176521    3.332407    2.349923
H     -1.951640    1.215432    2.734960
H      0.338852    1.905041   -0.857497
H     -2.649474    4.732826    0.373577
H      1.108126   -1.063075   -1.383818
H      5.242872    0.082851   -1.202849
H      4.909752    0.964566    1.089857
H      2.679805    0.837366    2.158187
H     -1.870065   -0.284421   -0.933526
H     -2.861230   -4.462771   -0.965129
H     -1.308308   -4.856925    0.926422
H     -0.030513   -2.972099    1.898452
