26

C     -1.355678    3.555979   -0.660235
C     -1.036735    3.331882    0.657393
O     -0.476640    2.106056    0.809856
C     -0.434339    1.522346   -0.427414
C     -0.967293    2.390604   -1.362164
P      0.194424   -0.067506   -0.776920
O      0.556890   -0.193367   -2.242597
C     -1.020731   -1.239455   -0.335268
C     -1.296063   -2.401559   -1.031957
C     -2.339473   -3.055950   -0.335744
C     -2.639770   -2.256687    0.740866
O     -1.850152   -1.153956    0.750133
C      1.592912   -0.330742    0.233062
C      2.906929   -0.212518   -0.180522
C      3.715193   -0.507000    0.942705
C      2.849812   -0.788132    1.972349
O      1.563509   -0.687043    1.554249
H     -1.811444    4.449462   -1.063345
H     -1.138385    3.914443    1.562681
H     -1.058128    2.196444   -2.423192
H     -0.797981   -2.727614   -1.936022
H     -2.814967   -3.993808   -0.586468
H     -3.352255   -2.327375    1.551190
H      3.232354    0.053282   -1.178108
H      4.794812   -0.514155    0.996635
H      2.983198   -1.063628    3.009446
