28

C     -0.154667   -2.021439    1.706859
P      0.050867   -1.385534    0.023688
O      0.192355   -2.583607   -0.893339
C      1.481983   -0.313934   -0.015506
C      1.945502    0.375402    1.113307
C      3.063394    1.208481    1.027348
C      3.730652    1.361074   -0.186260
C      3.282922    0.680472   -1.315574
C      2.166239   -0.151288   -1.229768
C     -1.404697   -0.403520   -0.318604
C     -1.673681    0.782093    0.379299
C     -2.820522    1.526809    0.097257
C     -3.710636    1.094261   -0.883719
C     -3.455235   -0.082015   -1.584746
C     -2.308933   -0.825981   -1.303535
H     -0.341906   -1.214018    2.419323
H      0.743218   -2.564343    2.014819
H     -1.004458   -2.709480    1.738842
H      1.444620    0.275207    2.071706
H      3.416313    1.738722    1.908485
H      4.601515    2.008174   -0.251884
H      3.803312    0.793596   -2.263205
H      1.824718   -0.686346   -2.115112
H     -0.990188    1.139315    1.144788
H     -3.019008    2.447242    0.640688
H     -4.602459    1.675187   -1.104257
H     -4.146619   -0.420717   -2.352179
H     -2.114601   -1.743813   -1.857120
