25

C      2.520376   -1.288477   -0.135203
C      1.641830   -0.037559   -0.150443
P      0.003720   -0.301190    0.692044
C     -0.739946    1.391905    0.484480
C     -0.187344    2.405166    1.486879
C     -0.843235    3.707414    1.311342
N     -1.368278    4.730818    1.161682
C     -0.903580   -1.216832   -0.650008
C     -2.327077   -1.598695   -0.244168
C     -2.977605   -2.360539   -1.318067
N     -3.480077   -2.960369   -2.174310
C      3.816675   -1.010188   -0.766882
N      4.836074   -0.777463   -1.268965
H      2.683598   -1.627402    0.895037
H      2.030447   -2.112449   -0.666258
H      1.475765    0.301892   -1.179900
H      2.164439    0.773760    0.369854
H     -0.578669    1.741294   -0.542411
H     -1.824153    1.305707    0.622794
H      0.894254    2.526480    1.358773
H     -0.347872    2.052953    2.513077
H     -0.339678   -2.128566   -0.879839
H     -0.914757   -0.612488   -1.565011
H     -2.921119   -0.703843   -0.026602
H     -2.313787   -2.201332    0.672105
