31

C      2.300487    1.432693    0.477796
C      1.637389    0.133425    0.006170
C      2.586026   -1.028947    0.320931
P     -0.011473   -0.092669    0.816367
C     -1.155147    1.124467    0.017418
C     -1.336109    2.342477    0.931641
C     -0.784790    1.588438   -1.388113
C     -0.606500   -1.743417    0.228537
C     -0.759655   -1.892707   -1.279570
C     -1.914122   -2.127719    0.929578
H      1.705784    2.315667    0.229021
H      3.278000    1.561243   -0.000862
H      2.459769    1.435679    1.562662
H      1.520318    0.177844   -1.080957
H      2.232118   -1.969734   -0.112252
H      3.579459   -0.842294   -0.102850
H      2.706691   -1.178201    1.400149
H     -2.138052    0.644345   -0.047706
H     -1.692456    2.046990    1.925401
H     -2.077501    3.031769    0.511906
H     -0.403466    2.900756    1.064723
H      0.119682    2.204034   -1.396690
H     -1.590610    2.202590   -1.806783
H     -0.625533    0.756146   -2.077730
H      0.140041   -2.475144    0.558375
H      0.155581   -1.623924   -1.815527
H     -0.988736   -2.933640   -1.535690
H     -1.579604   -1.281218   -1.669626
H     -1.812091   -2.085445    2.020112
H     -2.743497   -1.471199    0.645517
H     -2.202001   -3.152308    0.668050
